117
 energy: -152.510396629091 gnorm: 0.000447157845 xtb: 6.4.1 (c44e02ba19291534a3f951e6219dfa7840c7ac79)
Cl        1.68204547206998    1.39790527799594   -0.18276708877292
Ru        3.65648927379317    0.17962968478202    0.00242732125529
Cl        2.56541641434422   -1.95037699928141   -0.33427004183711
C         3.18222465348697    2.31833138675032    0.00274527883810
H         3.17240935985481    2.76127301833941    1.00648050927637
C         3.36361922630944    3.37051545705535   -1.00422707587487
C         4.30530310342414    4.38144658099996   -0.76676179907811
C         4.56359335912332    5.35507081940922   -1.70829958494684
C         3.87430853031113    5.37062487912071   -2.91055578714695
C         2.89975279777453    4.41535653107254   -3.13902323035755
C         2.64216290018124    3.43602388995835   -2.19961568395404
C         3.54029805823362    0.25760316899419    2.06769208542564
N         4.34323089023342    0.84102847694525    2.99429128732225
C         5.75523811156913    0.96229529199389    3.07079750094799
C         6.35322698188215    2.22205981980263    3.09658764671442
C         7.72541220181245    2.30796228332174    3.29734251037692
C         8.50401655662999    1.18034698132767    3.49930171478503
C         7.87959719036381   -0.06053453596294    3.52244814986882
C         6.51431143108924   -0.18577785865600    3.32997407547246
C         5.84077245988054   -1.51803712166954    3.41742637945159
C         9.98118726638360    1.28721546887227    3.72599031738481
C         5.54554607099058    3.47339740992755    2.94627050382151
C         3.68892375077472    1.02581284364464    4.29412246649747
C         2.41171965021365    0.22420719945445    4.13560418859641
N         2.38042992724450   -0.02022508606545    2.69617713125574
C         1.17458466739092   -0.63328487709863    2.24749476320378
C         1.08885460068796   -2.02658694294669    2.16354833318550
C        -0.10866442160139   -2.59489835802716    1.75813314367565
C        -1.22182933476300   -1.82154091146111    1.46435251329525
C        -1.14028061893524   -0.45124554123619    1.65069444783546
C         0.03750115724171    0.15679227201995    2.06298788193217
C         0.01836158153982    1.63112241676926    2.36194103067631
C        -2.48466902445764   -2.46418818538538    0.97738164495739
C         2.22497880991476   -2.91184496443610    2.57615861000972
P         5.86270051499641   -0.37923831828387   -0.60979237782746
C         6.00364345031637   -0.26349202842310   -2.49244177850314
C         5.79653418579383   -1.55356877018875   -3.28366532075924
C         4.36149938978947   -2.05473644098978   -3.22430088580765
C         3.39267965076038   -0.99217762931475   -3.72100750755744
C         3.59293211215850    0.28533823547589   -2.92131745361443
C         5.02447371811271    0.78798918301411   -3.02022169766879
C         7.16464110367757    0.85208040549704    0.00593410675357
C         8.68147338503674    0.62302917215469   -0.03689940150436
C         9.35905706159972    1.07197994364642   -1.32703200122379
C         9.07898789207261    2.55007032650182   -1.56912031949447
C         7.57502922541951    2.77880072674784   -1.65942421952858
C         6.86963395193605    2.29950729139392   -0.39305360845033
C         6.73004360708040   -1.97860304271834   -0.04193733021288
C         5.74057351506621   -3.10220742956819    0.31513706801584
C         5.73296823190507   -4.30601823252328   -0.61697441601592
C         7.14406283927530   -4.85672076922020   -0.75163394912347
C         7.98674888002833   -3.82302231539335   -1.48095639312466
C         8.01213751780476   -2.46411029475330   -0.76589249719507
H         4.83531325086136    4.39613443747606    0.17374387438976
H         5.30131095789121    6.11694647679838   -1.49930152519585
H         4.07846943385780    6.13138394052467   -3.64908324905169
H         2.32597904838534    4.43663783991708   -4.05492824274791
H         1.84525132702389    2.72992819333077   -2.38711131025879
H         8.19077624204714    3.28360510460226    3.30610742928145
H         8.47012093566492   -0.94577516652975    3.71144316128939
H         6.57203022516341   -2.32090482779242    3.44999342057030
H         5.23093227762790   -1.57886203842397    4.31944241280251
H         5.19115564868554   -1.65434447338581    2.55433105077082
H        10.35005685949822    2.26942214051329    3.44180707946591
H        10.21078303354364    1.12825431092877    4.77975984031816
H        10.51302979307506    0.53084214514366    3.15213838248014
H         5.24663450363008    3.84601675193686    3.92736640265148
H         6.12949292336255    4.25206655341517    2.46143926391247
H         4.65260479470349    3.28051080116138    2.36014624542155
H         3.49340140891600    2.09133960163081    4.46168887551571
H         4.32993479357873    0.66579638911670    5.10210024542908
H         1.51946178471028    0.76466160996648    4.45534582313100
H         2.44044722790209   -0.73394791433658    4.66985967940596
H        -0.16856114713254   -3.66942144327940    1.66367237297898
H        -2.01172293960975    0.16587412432029    1.47978511461522
H        -0.53872196981943    2.16977693383968    1.59783085524396
H        -0.48799776788397    1.79766850741128    3.31534859984037
H         1.01808070014348    2.05328659575191    2.42463541572674
H        -2.35890604813404   -2.78629018724209   -0.05634144737764
H        -2.72365516397735   -3.34361242909323    1.57271717600759
H        -3.32001185422306   -1.76922954713879    1.02124527980689
H         2.11339918723625   -3.18435257202020    3.62829963960281
H         2.22583969249240   -3.82179666116228    1.98331468240324
H         3.17955774918188   -2.41530133164246    2.43537615293628
H         7.02921244649095    0.07745195300677   -2.67135886968554
H         6.06864025749735   -1.35366829552167   -4.32705985518154
H         6.46148569221907   -2.32536638142479   -2.91194842136595
H         4.10701656802373   -2.29337050921227   -2.18929631858286
H         4.26057892256330   -2.96455371253708   -3.82136488099875
H         2.36698911488192   -1.34915738410336   -3.60679020925691
H         3.56396965145900   -0.78408401599332   -4.78231299026383
H         3.36934515771945    0.06327449975912   -1.84897348804811
H         2.90398885778916    1.05715122611282   -3.26997662846405
H         5.11385453144504    1.72668721398119   -2.47058109461160
H         5.25777345759508    0.99301716616661   -4.07131859985278
H         6.89306230782850    0.78096840298313    1.06461057495007
H         9.09648421302879    1.23309661933622    0.77193272995459
H         8.93577140211689   -0.40792997803200    0.18895261002128
H         9.00481318122217    0.48719805887675   -2.17736706527063
H        10.43601610357376    0.90535076825449   -1.24115112901995
H         9.56472833192639    2.88287248154477   -2.48915143558955
H         9.49095506603885    3.13366038371178   -0.74207458525089
H         7.19558460914454    2.26053250418388   -2.53779893745678
H         7.36460459795202    3.84255043386194   -1.79492749611800
H         5.78949925863860    2.41477513301185   -0.48750548183531
H         7.19838949470855    2.94174254090092    0.42844184203787
H         7.06664065629146   -1.57912672868902    0.92673641928195
H         5.99457578587916   -3.48056594235233    1.30870379170761
H         4.73307828417192   -2.68258859750461    0.36401089764898
H         5.35149147465400   -4.03519494848326   -1.59968228588707
H         5.06258532793954   -5.05950035432171   -0.19953943767725
H         7.14413572271488   -5.79386865785448   -1.31227666585726
H         7.56141370427735   -5.05522017469725    0.23853019974079
H         7.59910262412245   -3.72906290369117   -2.49656153461551
H         9.02005713931583   -4.16947305539317   -1.57203193471500
H         8.33686718152058   -1.71337281236247   -1.48673157398201
H         8.79367867898432   -2.54220858850218   -0.00439200848973
